19
C5H10O4
C       -5.135709000      3.853313000     -6.492230000
C       -6.071343000      4.600901000     -7.407071000
O       -5.626321000      5.311238000     -8.276309000
C       -5.467781000      4.190284000     -5.037143000
H       -6.520525000      3.981629000     -4.846996000
C       -4.602661000      3.338370000     -4.106216000
H       -3.549917000      3.547025000     -4.296363000
C       -4.934636000      3.675349000     -2.651150000
O       -4.047504000      2.966437000     -1.783665000
O       -4.864871000      1.954220000     -4.346334000
O       -5.205572000      5.574340000     -4.797060000
H       -5.250704000      2.781287000     -6.652178000
H       -4.107588000      4.144557000     -6.707133000
H       -7.139814000      4.501320000     -7.285198000
H       -4.819738000      4.747368000     -2.491181000
H       -5.962757000      3.384011000     -2.436283000
H       -4.200580000      3.132643000     -0.843475000
H       -5.784737000      1.696460000     -4.196492000
H       -4.285705000      5.832194000     -4.946867000
